*MATERIAL, NAME=M2
*DENSITY
                 2.68E-9,
*ELASTIC, TYPE=ISOTROPIC
                  70000.,                      0.3
**
*SOLID SECTION, ELSET=P2, MATERIAL=M2
**
** MATERIALS
**
**
**M2
**
**
*NODE
       1,      -2.4999999999999427,       -4.330156491140794,                       0.
       2,        -4.99989788515587,        -8.66031298228166,                       0.
       3,       -8.660083219314561,       -5.000296105772515,                       0.
       4,        4.999897885155858,       -8.660312982281665,                       0.
       5,          0.0,       -10.00000000000001,                       0.
       6,       -8.660083219314545,        5.000296105772514,                       0.
       7,          0.0,          0.0,                       0.
       8,        8.660083219314545,       -5.000296105772526,                       0.
       9,       2.4999999999999445,         4.33015649114078,                       0.
      10,       -4.999897885155858,        8.660312982281647,                       0.
      11,          0.0,        9.999999999999991,                       0.
      12,        4.999897885155873,        8.660312982281644,                       0.
      13,        8.660083219314568,        5.000296105772496,                       0.
      14,       -5.094299580257279,       -8.605131990221697,       5.2136791385566745
      15,       -8.658650005213666,         -5.0027795857458,        5.150235803486457
      16,                     -10.,                       0.,                       5.
      17,          0.0,      -10.000000000000009,        5.178268395935508
      18,                     -10.,                       0.,                       0.
      19,       -5.070104405575436,       -8.619407028302842,       10.263741804575986
      20,       -8.639967864368366,      -5.0350022831228936,       10.153988277176149
** ... 7671 like lines cut
**
** 
**
*ELEMENT, TYPE=C3D10, ELSET=P2
    1059,      884,     1039,     1028,      871,     4976,     4975,     5013,     6349,     4977,     5014
    1060,     1039,      516,     1028,      871,     4979,     5015,     4975,     4977,     6383,     5014
    1061,      516,     1028,     1040,     1039,     5015,     4968,     4972,     4979,     4975,     4966
    1062,     1028,     1040,     1039,     1041,     4968,     4966,     4975,     4961,     4959,     4960
    1063,     1041,      884,     1039,     1028,     4965,     4976,     4960,     4961,     5013,     4975
    1064,        8,        7,       29,       38,     1892,     1896,     1951,     1659,     1656,     1663
    1065,     1042,        7,       29,       22,     1895,     1896,     4953,     4955,     1897,     5661
    1066,        7,       97,       38,        8,     1891,     1658,     1656,     1892,     1949,     1659
    1067,       17,        1,       22,        4,     1883,     1882,     7682,     1940,     1876,     1939
    1068,        5,        1,       17,        4,     1877,     1883,     1941,     1937,     1876,     1940
    1069,        1,        7,       22,        4,     1873,     1897,     1882,     1876,     1889,     1939
    1070,       73,       70,     1043,       63,     1583,     4945,     1581,     1585,     5490,     4946
    1071,      114,       99,     1044,      109,     1495,     1905,     1498,     1492,     1509,     1511
    1072,     1028,      151,     1041,      889,     1389,     1386,     4961,     5012,     1390,     4964
    1073,      154,      889,     1045,      151,     1372,     4938,     1367,     1366,     1390,     1385
    1074,      876,      862,     1046,      865,     6371,     4928,     4924,     6370,     6400,     4927
    1075,      560,      905,     1047,      910,     6298,     4914,     4915,     6276,     6274,     4913
    1076,      571,      915,     1048,      921,     6257,     4905,     4908,     6238,     6237,     4903
    1077,     1049,      957,      951,     1050,     4895,     6107,     4898,     4878,     4879,     4881
    1078,     1009,      254,     1003,     1008,     1735,     1736,     5931,     5894,     1734,     5895
** ... 4061 like lines cut
**
** 
**
**
**
** BOUNDARY
**
*BOUNDARY, TYPE=DISPLACEMENT
18,        1,        3,                       0.
1,        1,        3,                       0.
7,        1,        3,                       0.
9,        1,        3,                       0.
2,        1,        3,                       0.
3,        1,        3,                       0.
4,        1,        3,                       0.
5,        1,        3,                       0.
6,        1,        3,                       0.
97,        1,        3,                       0.
8,        1,        3,                       0.
10,        1,        3,                       0.
11,        1,        3,                       0.
13,        1,        3,                       0.
12,        1,        3,                       0.
**
*STEP, NAME=FREQ
*NODE FILE
u
*FREQUENCY
20               
*END STEP
** *STEP
** *MATRIX GENERATE, STIFFNESS,MASS
** *MATRIX OUTPUT, STIFFNESS, MASS, FORMAT=COORDINATE 
** *END STEP
