*MATERIAL, NAME=mid
*DENSITY
                 7.85E-9,
*ELASTIC, TYPE=ISOTROPIC
                 210000.,                      0.3
**
*SOLID SECTION, ELSET=pid, MATERIAL=mid
**
** MATERIALS
**
**
*INCLUDE, INPUT=example_runfiles/ex6_2ndorder.inp
**Default MATERIAL
**
**
*NODE
       1,                       0.,                       0.,                      10.
       2,                       0.,                      10.,                      20.
       3,                       0.,                       0.,                      20.
       4,                       0.,                      20.,                       0.
       5,                       0.,                       0.,       30.000000000000014
       6,                      10.,                       0.,       19.999999999999986
       7,                       0.,                       0.,                       0.
       8,                       0.,                      20.,                      20.
       9,                       0.,                       0.,        40.00000000000003
      10,                       0.,                      20.,        40.00000000000003
      11,                       0.,                       0.,       60.000000000000114
      12,                       0.,                      20.,       60.000000000000114
      13,                       0.,                       0.,        80.00000000000011
      14,                       0.,                      20.,        80.00000000000011
      15,                       0.,                       0.,       100.00000000000011
      16,                       0.,                      20.,       100.00000000000011
      17,                       0.,                       0.,       120.00000000000011
      18,                       0.,                      20.,       120.00000000000011
      19,                       0.,                       0.,        140.0000000000001
      20,                       0.,                      20.,        140.0000000000001
** ... 108 like lines cut
**
** SOLID ELEMENTS
**
*ELEMENT, TYPE=C3D20, ELSET=pid
      43,       29,        4,        7,       40,       28,        8,        3,       39,       51,       26,       52,      101,       54,        2,        6,
      100,       98,       50,        1,      119
      44,       28,        8,        3,       39,       30,       10,        9,       41,       54,        2,        6,      100,       59,       55,       57,
      103,       99,       53,        5,      120
      45,       30,       10,        9,       41,       31,       12,       11,       42,       59,       55,       57,      103,       64,       60,       62,
      105,      102,       58,       56,      121
      46,       31,       12,       11,       42,       32,       14,       13,       43,       64,       60,       62,      105,       69,       65,       67,
      107,      104,       63,       61,      122
      47,       32,       14,       13,       43,       33,       16,       15,       44,       69,       65,       67,      107,       74,       70,       72,
      109,      106,       68,       66,      123
      48,       33,       16,       15,       44,       34,       18,       17,       45,       74,       70,       72,      109,       79,       75,       77,
      111,      108,       73,       71,      124
      49,       34,       18,       17,       45,       35,       20,       19,       46,       79,       75,       77,      111,       84,       80,       82,
      113,      110,       78,       76,      125
      50,       35,       20,       19,       46,       36,       22,       21,       47,       84,       80,       82,      113,       89,       85,       87,
      115,      112,       83,       81,      126
      51,       36,       22,       21,       47,       37,       24,       23,       48,       89,       85,       87,      115,       94,       90,       92,
      117,      114,       88,       86,      127
      52,       37,       24,       23,       48,       38,       27,       25,       49,       94,       90,       92,      117,       97,       95,       96,
      118,      116,       93,       91,      128
**
** 
**
**
** 
**
**
** SECTION DATA
**
** 
**
**
** BOUNDARY
**
**
** STEPS
**
**
** STEP 1
**
** *STEP, NAME=Anonymous STEP 1
*FREQUENCY, EIGENSOLVER=LANCZOS
      20,
**
** CLOAD
**
** *NODE PRINT
** U,
** *END STEP
** **
** ** STEP 2
** **
** *STEP, NAME=Anonymous STEP 2
** *MATRIX GENERATE, STIFFNESS, MASS
** *MATRIX OUTPUT, STIFFNESS, MASS, FORMAT=COORDINATE
** *END STEP
** *STEP
*STATIC
*BOUNDARY, TYPE=DISPLACEMENT
      29,        1,        3,                       0.
      40,        1,        3,                       0.
      51,        1,        3,                       0.
     101,        1,        3,                       0.
       4,        1,        3,                       0.
       7,        1,        3,                       0.
      26,        1,        3,                       0.
      52,        1,        3,                       0.
**
**
*CLOAD
      25,        2,                    -1000.	  
      27,        2,                    -1000.	  
      95,        2,                    -1000.	  
** *END STEP
