**
*HEADING

**
*MATERIAL, NAME=M1;mid
*DENSITY
                 7.85E-9,
*ELASTIC, TYPE=ISOTROPIC
                 210000.,                      0.3
** 
*SOLID SECTION, ELSET=P1;pid, MATERIAL=M1;mid
                      1.,
**
** MATERIALS
**
**
**M1;mid
**
**
**
*NODE
       1,        2.263632187202159,        4.478411209724541,                       0.
       2,        5.000000000000014,                       0.,                       0.
       3,                       0.,                       0.,                       0.
       4,                       0.,       1.9999999999999858,                       0.
       5,       5.6288668623418445,        4.172048629198386,                       0.
       6,         2.38445695102636,         8.33414765827888,                       0.
       7,                       0.,       3.9999999999999716,                       0.
       8,        9.904890808244218,        4.371719866231587,                       0.
       9,       10.000000000000014,                       0.,                       0.
      10,       5.5045004461766425,        8.253815394157144,                       0.
      11,       2.3159236899904005,       11.863620679354355,                       0.
      12,                       0.,        5.999999999999957,                       0.
      13,         9.36363099782453,        8.143375127544644,                       0.
      14,         5.38685367973029,       11.871554067587084,                       0.
      15,        2.264285149069316,       15.163892975084977,                       0.
      16,        15.00000000000001,                       0.,                       0.
      17,                       0.,        7.999999999999943,                       0.
      18,       14.803837226508442,         4.44784595683258,                       0.
      19,        8.985052967989663,       11.710033366085014,                       0.
      20,        5.243148522403374,       15.162502715951206,                       0.
** ... 836 like lines cut
**
** MEMBRANE and STRUCTURAL ELEMENTS
**
*ELEMENT, TYPE=CPS4, ELSET=P1;pid
       1,        1,        4,        3,        2
       5,       12,        1,        6,       17
       7,        8,        5,        2,        9
       8,        6,        1,        5,       10
       9,       23,        6,       11,       29
      10,       13,       10,        5,        8
      11,       11,        6,       10,       14
      12,       15,       38,       29,       11
      13,       16,       18,        8,        9
      15,       10,       13,       19,       14
      16,       20,       15,       11,       14
      17,       18,       21,       13,        8
      18,       48,       15,       22,       54
      20,       18,       16,       25,       24
      21,       15,       20,       26,       22
      22,       27,       20,       14,       19
      23,       21,       28,       19,       13
      25,       67,       22,       31,       80
      26,       20,       27,       32,       26
      27,       31,       22,       26,       33
** ... 720 like lines cut
*ELEMENT, TYPE=CPS3, ELSET=P1;pid
       2,        4,        1,        7
       3,        1,       12,        7
       4,        1,        2,        5
       6,        6,       23,       17
      14,       38,       15,       48
      19,       22,       67,       54
      24,       21,       18,       30
      33,       36,      107,       92
      49,       40,       59,       47
      54,      152,       60,      173
      60,       63,       61,       49
      67,       58,       72,       66
      73,      209,       81,      230
      97,       97,      301,      277
     115,      127,      377,      350
     119,      111,      128,      126
     131,      116,      134,      131
     152,      156,      503,      468
     162,      146,      167,      163
     174,      164,      189,      172
** ... 48 like lines cut
**
** 
**
**
** 
**
**
** SECTION DATA
**
**
** 
**
**
** STEPS
**
**
** STEP 1
**
*STEP, NAME=Anonymous STEP 1
*STATIC
**
** CLOAD
**
*CLOAD
    3852,        2,                    -100.
**
** BOUNDARY
**
*BOUNDARY, TYPE=DISPLACEMENT
       3,        1,        2,                       0.
       4,        1,        2,                       0.
       7,        1,        2,                       0.
      12,        1,        2,                       0.
      17,        1,        2,                       0.
      23,        1,        2,                       0.
      29,        1,        2,                       0.
      38,        1,        2,                       0.
      48,        1,        2,                       0.
      54,        1,        2,                       0.
      67,        1,        2,                       0.
      80,        1,        2,                       0.
      92,        1,        2,                       0.
     107,        1,        2,                       0.
     123,        1,        2,                       0.
     137,        1,        2,                       0.
     152,        1,        2,                       0.
     173,        1,        2,                       0.
     191,        1,        2,                       0.
     209,        1,        2,                       0.
** ... 31 like lines cut
*END STEP
