**Default MATERIAL
**
*MATERIAL, NAME=Default MATERIAL
*DENSITY
                 7.85E-9,
*ELASTIC, TYPE=ISOTROPIC
                 210000.,                      0.3
** 
*SOLID SECTION, ELSET=Default PSOLID Property, MATERIAL=Default MATERIAL
**
** MATERIALS
**
**
**
*NODE
       2,                       0.,                      20.,                       0.
       3,                       0.,                       0.,                       0.
       4,                       0.,                      10.,                       0.
       5,                      20.,                      20.,                       0.
       6,                      20.,                       0.,                       0.
       7,                      10.,                      20.,                       0.
       8,                      10.,                       0.,                       0.
       9,                      20.,                      10.,                       0.
    1001,                       0.,                       0.,                      10.
    1002,                       0.,                      10.,                      20.
    1003,                       0.,                       0.,                      20.
    1005,                       0.,                       0.,       30.000000000000014
    1006,                      10.,                       0.,       19.999999999999986
    1008,                       0.,                      20.,                      20.
    1009,                       0.,                       0.,        40.00000000000003
    1010,                       0.,                      20.,        40.00000000000003
    1011,                       0.,                       0.,       60.000000000000114
    1012,                       0.,                      20.,       60.000000000000114
    1013,                       0.,                       0.,        80.00000000000011
    1014,                       0.,                      20.,        80.00000000000011
** ... 108 like lines cut
**
** SOLID ELEMENTS
**
*ELEMENT, TYPE=C3D20, ELSET=Default PSOLID Property
      43,        5,        2,        3,        6,     1028,     1008,     1003,     1039,        7,        4,        8,        9,     1054,     1002,     1006,
    1100,     1098,     1050,     1001,     1119
      44,     1028,     1008,     1003,     1039,     1030,     1010,     1009,     1041,     1054,     1002,     1006,     1100,     1059,     1055,     1057,
    1103,     1099,     1053,     1005,     1120
      45,     1030,     1010,     1009,     1041,     1031,     1012,     1011,     1042,     1059,     1055,     1057,     1103,     1064,     1060,     1062,
    1105,     1102,     1058,     1056,     1121
      46,     1031,     1012,     1011,     1042,     1032,     1014,     1013,     1043,     1064,     1060,     1062,     1105,     1069,     1065,     1067,
    1107,     1104,     1063,     1061,     1122
      47,     1032,     1014,     1013,     1043,     1033,     1016,     1015,     1044,     1069,     1065,     1067,     1107,     1074,     1070,     1072,
    1109,     1106,     1068,     1066,     1123
      48,     1033,     1016,     1015,     1044,     1034,     1018,     1017,     1045,     1074,     1070,     1072,     1109,     1079,     1075,     1077,
    1111,     1108,     1073,     1071,     1124
      49,     1034,     1018,     1017,     1045,     1035,     1020,     1019,     1046,     1079,     1075,     1077,     1111,     1084,     1080,     1082,
    1113,     1110,     1078,     1076,     1125
      50,     1035,     1020,     1019,     1046,     1036,     1022,     1021,     1047,     1084,     1080,     1082,     1113,     1089,     1085,     1087,
    1115,     1112,     1083,     1081,     1126
      51,     1036,     1022,     1021,     1047,     1037,     1024,     1023,     1048,     1089,     1085,     1087,     1115,     1094,     1090,     1092,
    1117,     1114,     1088,     1086,     1127
      52,     1037,     1024,     1023,     1048,     1038,     1027,     1025,     1049,     1094,     1090,     1092,     1117,     1097,     1095,     1096,
    1118,     1116,     1093,     1091,     1128
**
** 
**
**
** 
**
**
** SECTION DATA
**
**
** 
*NSET, NSET=bc_nodes
5,2,3,6,7,4,8,9
**
**
*BOUNDARY, TYPE=DISPLACEMENT
bc_nodes,        1,        3,                       0.
** BOUNDARY
**
** *BOUNDARY, TYPE=DISPLACEMENT
** 5,        1,        3,                       0.
** 2,        1,        3,                       0.
** 3,        1,        3,                       0.
** 6,        1,        3,                       0.
** 7,        1,        3,                       0.
** 4,        1,        3,                       0.
** 8,        1,        3,                       0.
** 9,        1,        3,                       0.
**
** STEPS
**
**
*CLOAD
1025,1,-1E3
1027,1,-1E3
1095,1,-1E3
** STEP 1
*STEP
*STATIC
0.1
*END STEP

**
*STEP, NAME=Anonymous STEP 1
*FREQUENCY, EIGENSOLVER=LANCZOS
      20,
** *NODE PRINT
** U,
** *END STEP
**
** STEP 2
**
** *STEP, NAME=Anonymous STEP 2
**
**
** *MATRIX GENERATE, STIFFNESS, MASS
** *MATRIX OUTPUT, STIFFNESS, MASS, FORMAT=COORDINATE
** *END STEP
